# generated using pymatgen
data_Fe2O3
_symmetry_space_group_name_H-M   'P 1'
_cell_length_a   9.55611469
_cell_length_b   9.55611469
_cell_length_c   9.55611469
_cell_angle_alpha   90.00000000
_cell_angle_beta   90.00000000
_cell_angle_gamma   90.00000000
_symmetry_Int_Tables_number   1
_chemical_formula_structural   Fe2O3
_chemical_formula_sum   'Fe32 O48'
_cell_volume   872.65797268
_cell_formula_units_Z   16
loop_
 _symmetry_equiv_pos_site_id
 _symmetry_equiv_pos_as_xyz
  1  'x, y, z'
loop_
 _atom_site_type_symbol
 _atom_site_label
 _atom_site_symmetry_multiplicity
 _atom_site_fract_x
 _atom_site_fract_y
 _atom_site_fract_z
 _atom_site_occupancy
  Fe  Fe0  1  0.961939  0.000000  0.250000  1
  Fe  Fe1  1  0.000000  0.750000  0.538061  1
  Fe  Fe2  1  0.038061  0.000000  0.750000  1
  Fe  Fe3  1  0.250000  0.538061  0.500000  1
  Fe  Fe4  1  0.961939  0.500000  0.750000  1
  Fe  Fe5  1  0.750000  0.461939  0.500000  1
  Fe  Fe6  1  0.250000  0.038061  0.500000  1
  Fe  Fe7  1  0.750000  0.961939  0.500000  1
  Fe  Fe8  1  0.750000  0.750000  0.250000  1
  Fe  Fe9  1  0.038061  0.500000  0.250000  1
  Fe  Fe10  1  0.000000  0.250000  0.961939  1
  Fe  Fe11  1  0.000000  0.750000  0.038061  1
  Fe  Fe12  1  0.000000  0.250000  0.461939  1
  Fe  Fe13  1  0.750000  0.250000  0.250000  1
  Fe  Fe14  1  0.250000  0.250000  0.250000  1
  Fe  Fe15  1  0.750000  0.250000  0.750000  1
  Fe  Fe16  1  0.461939  0.500000  0.750000  1
  Fe  Fe17  1  0.500000  0.250000  0.038061  1
  Fe  Fe18  1  0.538061  0.500000  0.250000  1
  Fe  Fe19  1  0.750000  0.038061  0.000000  1
  Fe  Fe20  1  0.461939  0.000000  0.250000  1
  Fe  Fe21  1  0.250000  0.961939  0.000000  1
  Fe  Fe22  1  0.750000  0.538061  0.000000  1
  Fe  Fe23  1  0.250000  0.461939  0.000000  1
  Fe  Fe24  1  0.250000  0.250000  0.750000  1
  Fe  Fe25  1  0.538061  0.000000  0.750000  1
  Fe  Fe26  1  0.500000  0.750000  0.461939  1
  Fe  Fe27  1  0.500000  0.250000  0.538061  1
  Fe  Fe28  1  0.500000  0.750000  0.961939  1
  Fe  Fe29  1  0.250000  0.750000  0.750000  1
  Fe  Fe30  1  0.750000  0.750000  0.750000  1
  Fe  Fe31  1  0.250000  0.750000  0.250000  1
  O  O32  1  0.390239  0.657323  0.616259  1
  O  O33  1  0.116259  0.609761  0.657323  1
  O  O34  1  0.157323  0.616259  0.109761  1
  O  O35  1  0.616259  0.390239  0.657323  1
  O  O36  1  0.657323  0.383741  0.109761  1
  O  O37  1  0.657323  0.616259  0.390239  1
  O  O38  1  0.842677  0.616259  0.609761  1
  O  O39  1  0.383741  0.390239  0.157323  1
  O  O40  1  0.342677  0.616259  0.890239  1
  O  O41  1  0.116259  0.390239  0.842677  1
  O  O42  1  0.390239  0.157323  0.383741  1
  O  O43  1  0.890239  0.342677  0.616259  1
  O  O44  1  0.383741  0.609761  0.342677  1
  O  O45  1  0.109761  0.657323  0.383741  1
  O  O46  1  0.883741  0.390239  0.342677  1
  O  O47  1  0.157323  0.383741  0.390239  1
  O  O48  1  0.616259  0.609761  0.842677  1
  O  O49  1  0.883741  0.609761  0.157323  1
  O  O50  1  0.609761  0.842677  0.616259  1
  O  O51  1  0.109761  0.157323  0.616259  1
  O  O52  1  0.342677  0.383741  0.609761  1
  O  O53  1  0.890239  0.842677  0.383741  1
  O  O54  1  0.609761  0.342677  0.383741  1
  O  O55  1  0.842677  0.383741  0.890239  1
  O  O56  1  0.890239  0.157323  0.116259  1
  O  O57  1  0.616259  0.109761  0.157323  1
  O  O58  1  0.657323  0.116259  0.609761  1
  O  O59  1  0.116259  0.890239  0.157323  1
  O  O60  1  0.157323  0.883741  0.609761  1
  O  O61  1  0.157323  0.116259  0.890239  1
  O  O62  1  0.342677  0.116259  0.109761  1
  O  O63  1  0.883741  0.890239  0.657323  1
  O  O64  1  0.842677  0.116259  0.390239  1
  O  O65  1  0.616259  0.890239  0.342677  1
  O  O66  1  0.890239  0.657323  0.883741  1
  O  O67  1  0.390239  0.842677  0.116259  1
  O  O68  1  0.883741  0.109761  0.842677  1
  O  O69  1  0.609761  0.157323  0.883741  1
  O  O70  1  0.383741  0.890239  0.842677  1
  O  O71  1  0.657323  0.883741  0.890239  1
  O  O72  1  0.116259  0.109761  0.342677  1
  O  O73  1  0.383741  0.109761  0.657323  1
  O  O74  1  0.109761  0.342677  0.116259  1
  O  O75  1  0.609761  0.657323  0.116259  1
  O  O76  1  0.842677  0.883741  0.109761  1
  O  O77  1  0.390239  0.342677  0.883741  1
  O  O78  1  0.109761  0.842677  0.883741  1
  O  O79  1  0.342677  0.883741  0.390239  1
