# generated using pymatgen
data_H2O
_symmetry_space_group_name_H-M   Cmc2_1
_cell_length_a   4.45238246
_cell_length_b   7.70757060
_cell_length_c   7.27885769
_cell_angle_alpha   90.00000000
_cell_angle_beta   90.00000000
_cell_angle_gamma   90.00000000
_symmetry_Int_Tables_number   36
_chemical_formula_structural   H2O
_chemical_formula_sum   'H16 O8'
_cell_volume   249.78893893
_cell_formula_units_Z   8
loop_
 _symmetry_equiv_pos_site_id
 _symmetry_equiv_pos_as_xyz
  1  'x, y, z'
  2  '-x, -y, z+1/2'
  3  '-x, y, z'
  4  'x, -y, z+1/2'
  5  'x+1/2, y+1/2, z'
  6  '-x+1/2, -y+1/2, z+1/2'
  7  '-x+1/2, y+1/2, z'
  8  'x+1/2, -y+1/2, z+1/2'
loop_
 _atom_site_type_symbol
 _atom_site_label
 _atom_site_symmetry_multiplicity
 _atom_site_fract_x
 _atom_site_fract_y
 _atom_site_fract_z
 _atom_site_occupancy
  H  H0  8  0.178712  0.269542  0.516774  1
  H  H1  4  0.000000  0.337316  0.802875  1
  H  H2  4  0.000000  0.459776  0.980417  1
  O  O3  4  0.000000  0.333444  0.565409  1
  O  O4  4  0.000000  0.335391  0.939751  1
