# generated using pymatgen
data_K15Re7N19
_symmetry_space_group_name_H-M   P-1
_cell_length_a   6.82991819
_cell_length_b   12.54611860
_cell_length_c   19.32573319
_cell_angle_alpha   90.88102524
_cell_angle_beta   94.39609986
_cell_angle_gamma   99.46143156
_symmetry_Int_Tables_number   2
_chemical_formula_structural   K15Re7N19
_chemical_formula_sum   'K30 Re14 N38'
_cell_volume   1628.00979635
_cell_formula_units_Z   2
loop_
 _symmetry_equiv_pos_site_id
 _symmetry_equiv_pos_as_xyz
  1  'x, y, z'
  2  '-x, -y, -z'
loop_
 _atom_site_type_symbol
 _atom_site_label
 _atom_site_symmetry_multiplicity
 _atom_site_fract_x
 _atom_site_fract_y
 _atom_site_fract_z
 _atom_site_occupancy
  K  K0  2  0.024237  0.658798  0.984710  1
  K  K1  2  0.067294  0.961617  0.614772  1
  K  K2  2  0.083840  0.338659  0.213975  1
  K  K3  2  0.133425  0.826670  0.164348  1
  K  K4  2  0.134572  0.098314  0.099802  1
  K  K5  2  0.227177  0.250430  0.720512  1
  K  K6  2  0.254221  0.734686  0.616093  1
  K  K7  2  0.278593  0.977304  0.804996  1
  K  K8  2  0.284533  0.917187  0.993167  1
  K  K9  2  0.381085  0.864378  0.348348  1
  K  K10  2  0.391667  0.105849  0.467095  1
  K  K11  2  0.394657  0.619370  0.157136  1
  K  K12  2  0.399293  0.550219  0.721541  1
  K  K13  2  0.479163  0.377354  0.562496  1
  K  K14  1  0.000000  0.500000  0.500000  1
  K  K15  1  0.500000  0.500000  0.000000  1
  Re  Re16  2  0.013927  0.217939  0.549729  1
  Re  Re17  2  0.130110  0.592554  0.314941  1
  Re  Re18  2  0.137107  0.452715  0.861856  1
  Re  Re19  2  0.250500  0.344379  0.393204  1
  Re  Re20  2  0.317072  0.205861  0.942631  1
  Re  Re21  2  0.335869  0.120256  0.274102  1
  Re  Re22  2  0.424092  0.729463  0.874442  1
  N  N23  2  0.050184  0.419764  0.765056  1
  N  N24  2  0.055461  0.674465  0.389921  1
  N  N25  2  0.064901  0.521338  0.092180  1
  N  N26  2  0.088918  0.109218  0.948738  1
  N  N27  2  0.103259  0.292622  0.469056  1
  N  N28  2  0.108803  0.446956  0.351071  1
  N  N29  2  0.133647  0.011338  0.249807  1
  N  N30  2  0.196494  0.888312  0.471557  1
  N  N31  2  0.203079  0.787800  0.876632  1
  N  N32  2  0.225890  0.167407  0.589806  1
  N  N33  2  0.245947  0.328938  0.898137  1
  N  N34  2  0.248319  0.229845  0.328738  1
  N  N35  2  0.344612  0.575007  0.863961  1
  N  N36  2  0.379005  0.641366  0.294245  1
  N  N37  2  0.418073  0.214280  0.195695  1
  N  N38  2  0.429143  0.243292  0.036315  1
  N  N39  2  0.452450  0.925820  0.682478  1
  N  N40  2  0.498186  0.152538  0.894569  1
  N  N41  2  0.498253  0.600285  0.579021  1
