# generated using pymatgen
data_LiSiNO
_symmetry_space_group_name_H-M   Pca2_1
_cell_length_a   5.23137019
_cell_length_b   6.42681650
_cell_length_c   4.78148146
_cell_angle_alpha   90.00000000
_cell_angle_beta   90.00000000
_cell_angle_gamma   90.00000000
_symmetry_Int_Tables_number   29
_chemical_formula_structural   LiSiNO
_chemical_formula_sum   'Li4 Si4 N4 O4'
_cell_volume   160.75845715
_cell_formula_units_Z   4
loop_
 _symmetry_equiv_pos_site_id
 _symmetry_equiv_pos_as_xyz
  1  'x, y, z'
  2  '-x, -y, z+1/2'
  3  '-x+1/2, y, z+1/2'
  4  'x+1/2, -y, z'
loop_
 _atom_site_type_symbol
 _atom_site_label
 _atom_site_symmetry_multiplicity
 _atom_site_fract_x
 _atom_site_fract_y
 _atom_site_fract_z
 _atom_site_occupancy
  Li  Li0  4  0.097153  0.614281  0.999134  1
  Si  Si1  4  0.080950  0.120066  0.011739  1
  N  N2  4  0.109366  0.084436  0.647890  1
  O  O3  4  0.038446  0.655599  0.591236  1
