# generated using pymatgen
data_Ta21Te13
_symmetry_space_group_name_H-M   P6mm
_cell_length_a   19.57118481
_cell_length_b   19.57118481
_cell_length_c   10.70023405
_cell_angle_alpha   90.00000000
_cell_angle_beta   90.00000000
_cell_angle_gamma   120.00000000
_symmetry_Int_Tables_number   183
_chemical_formula_structural   Ta21Te13
_chemical_formula_sum   'Ta84 Te52'
_cell_volume   3549.42615189
_cell_formula_units_Z   4
loop_
 _symmetry_equiv_pos_site_id
 _symmetry_equiv_pos_as_xyz
  1  'x, y, z'
  2  'x-y, x, z'
  3  '-y, x-y, z'
  4  '-x, -y, z'
  5  '-x+y, -x, z'
  6  'y, -x+y, z'
  7  'y, x, z'
  8  'x, x-y, z'
  9  'x-y, -y, z'
  10  '-y, -x, z'
  11  '-x, -x+y, z'
  12  '-x+y, y, z'
loop_
 _atom_site_type_symbol
 _atom_site_label
 _atom_site_symmetry_multiplicity
 _atom_site_fract_x
 _atom_site_fract_y
 _atom_site_fract_z
 _atom_site_occupancy
  Ta  Ta0  12  0.082890  0.413061  0.421424  1
  Ta  Ta1  12  0.141056  0.428191  0.677389  1
  Ta  Ta2  6  0.000000  0.147880  0.801983  1
  Ta  Ta3  6  0.000000  0.268454  0.599455  1
  Ta  Ta4  6  0.000000  0.427848  0.637412  1
  Ta  Ta5  6  0.083062  0.166124  0.568543  1
  Ta  Ta6  6  0.145562  0.291123  0.759515  1
  Ta  Ta7  6  0.149316  0.574658  0.552565  1
  Ta  Ta8  6  0.163465  0.326930  0.493739  1
  Ta  Ta9  6  0.250220  0.500440  0.466912  1
  Ta  Ta10  6  0.285410  0.570820  0.718096  1
  Ta  Ta11  3  0.000000  0.500000  0.396825  1
  Ta  Ta12  2  0.333333  0.666667  0.491502  1
  Ta  Ta13  1  0.000000  0.000000  0.677336  1
  Te  Te14  6  0.000000  0.198656  0.369623  1
  Te  Te15  6  0.000000  0.328221  0.840506  1
  Te  Te16  6  0.000000  0.400761  0.196698  1
  Te  Te17  6  0.111353  0.222706  0.000743  1
  Te  Te18  6  0.115189  0.557594  0.809817  1
  Te  Te19  6  0.198475  0.396951  0.254843  1
  Te  Te20  6  0.205294  0.602647  0.307197  1
  Te  Te21  6  0.220323  0.440647  0.908617  1
  Te  Te22  2  0.333333  0.666667  0.939080  1
  Te  Te23  1  0.000000  0.000000  0.422289  1
  Te  Te24  1  0.000000  0.000000  0.933926  1
