# generated using pymatgen
data_TiNbTl(O2F)2
_symmetry_space_group_name_H-M   Cc
_cell_length_a   10.39380019
_cell_length_b   10.43332133
_cell_length_c   7.45304838
_cell_angle_alpha   90.00000000
_cell_angle_beta   133.41458455
_cell_angle_gamma   90.00000000
_symmetry_Int_Tables_number   9
_chemical_formula_structural   TiNbTl(O2F)2
_chemical_formula_sum   'Ti4 Nb4 Tl4 O16 F8'
_cell_volume   587.09255530
_cell_formula_units_Z   4
loop_
 _symmetry_equiv_pos_site_id
 _symmetry_equiv_pos_as_xyz
  1  'x, y, z'
  2  'x, -y, z+1/2'
  3  'x+1/2, y+1/2, z'
  4  'x+1/2, -y+1/2, z+1/2'
loop_
 _atom_site_type_symbol
 _atom_site_label
 _atom_site_symmetry_multiplicity
 _atom_site_fract_x
 _atom_site_fract_y
 _atom_site_fract_z
 _atom_site_occupancy
  Ti  Ti0  4  0.254281  0.244531  0.014151  1
  Nb  Nb1  4  0.489524  0.008372  0.489287  1
  Tl  Tl2  4  0.074245  0.161025  0.327428  1
  O  O3  4  0.000832  0.431530  0.249724  1
  O  O4  4  0.180125  0.372054  0.102139  1
  O  O5  4  0.303306  0.127090  0.242073  1
  O  O6  4  0.320557  0.129480  0.892715  1
  F  F7  4  0.000786  0.184418  0.749295  1
  F  F8  4  0.196344  0.371957  0.753188  1
